            TRNSYS - the TRaNsient SYstem Simulation program

   The Solar Energy Lab at the University of Wisconsin - Madison, USA
Le Centre Scientifique et Technique du Batiment, Sophia Antipolis, France
           Transsolar Energietechnik GmBH, Stuttgart, Germany
        Thermal Energy System Specialists, LLC, Madison Wisconsin, USA

                           Release 18.02.0002
                           User ID  18-F1234

Simulation log for: "C:\Users\ecer\pytrnsys\pytrnsys\data\examples\pv_battery\pv_system-CBat10\pv_system-CBat10.dck"
 
*** Notice at time        :         0.000000
    Generated by Unit     : Not applicable or not available
    Generated by Type     : Not applicable or not available
    Message               : The TRNSYS Executable (TRNExe.exe) and main DLL (TRNDll.dll) are located in "C:\TRNSYS18\Exe"
 
*** Fatal Error at time   :         0.000000
    Generated by Unit     : Not applicable or not available
    Generated by Type     : Not applicable or not available
    TRNSYS Message     20 : The referenced variable used in this equation has not been defined in the TRNSYS input file. The equation begins with the string in "reported information"
    Reported information  : PELHEATSYS_KW = ELSYSIN_Q_HP+ELSYSOUT_PU
 
*** Fatal Error at time   :         0.000000
    Generated by Unit     : Not applicable or not available
    Generated by Type     : Not applicable or not available
    TRNSYS Message     20 : The referenced variable used in this equation has not been defined in the TRNSYS input file. The equation begins with the string in "reported information"
    Reported information  : PELHEATSYS_KW = ELSYSIN_Q_HP+ELSYSOUT_PU
 
*** Fatal Error at time   :         0.000000
    Generated by Unit     : Not applicable or not available
    Generated by Type     : Not applicable or not available
    TRNSYS Message     20 : The referenced variable used in this equation has not been defined in the TRNSYS input file. The equation begins with the string in "reported information"
    Reported information  : PELHEATSYS_KW = ELSYSIN_Q_HP+ELSYSOUT_PU
 
*** Fatal Error at time   :         0.000000
    Generated by Unit     : Not applicable or not available
    Generated by Type     : Not applicable or not available
    TRNSYS Message     20 : The referenced variable used in this equation has not been defined in the TRNSYS input file. The equation begins with the string in "reported information"
    Reported information  : PELHEATSYS_KW = ELSYSIN_Q_HP+ELSYSOUT_PU
 
*** Fatal Error at time   :         0.000000
    Generated by Unit     : Not applicable or not available
    Generated by Type     : Not applicable or not available
    TRNSYS Message     20 : The referenced variable used in this equation has not been defined in the TRNSYS input file. The equation begins with the string in "reported information"
    Reported information  : PELHEATSYS_KW = ELSYSIN_Q_HP+ELSYSOUT_PU
 
*** End of the simulation
    Total Notices         :         1
    Total Warnings        :         0
    Total Fatal Errors    :         5
 
    Total TRNSYS Calculation Time     :             0.4500 seconds
    Calculation time inside the Types :             0.0000 seconds
 
    TRNSYS Calculation Time Breakdown by Unit Number
 
    TRNSYS Calculation Time Breakdown by Type Number
 
    TRNSYS Iterative Call Breakdown by Unit Number
 
*** Simulation stopped with errors
    Total Notices         :         1
    Total Warnings        :         0
    Total Fatal Errors    :         5
